<?xml version="1.0" encoding="UTF-8"?>

<!-- generated on 2025-04-25 18:41:22 by Eclipse SUMO netedit Version 1.22.0
-->

<routes xmlns:xsi="http://www.w3.org/2001/XMLSchema-instance" xsi:noNamespaceSchemaLocation="http://sumo.dlr.de/xsd/routes_file.xsd">
    <!-- Vehicles, persons and containers (sorted by depart) -->
    <vehicle id="v_0" depart="0.00">
        <route edges="-1008226672#2 32085402#0 32085402#1 32085402#2 32085402#3"/>
        <stop lane="32085402#3_0" duration="60" parking="true"/>
    </vehicle>
    <flow id="f_0" begin="0.00" from="-32085402#3" to="-32085402#0" via="-32085402#1" end="3600.00" vehsPerHour="400"/>
</routes>
