<?xml version="1.0" encoding="UTF-8"?>

<!-- generated on 2025-04-25 18:35:38 by Eclipse SUMO netedit Version 1.22.0
<neteditConfiguration xmlns:xsi="http://www.w3.org/2001/XMLSchema-instance" xsi:noNamespaceSchemaLocation="http://sumo.dlr.de/xsd/neteditConfiguration.xsd">

    <input>
        <sumocfg-file value="C:\Users\gdste\OneDrive - University of Patras\Uni\Diploma Thesis\sterg_3d_twin\sumo\draft2\test.sumocfg"/>
        <additional-files value="C:\Users\gdste\OneDrive - University of Patras\Uni\Diploma Thesis\sterg_3d_twin\sumo\draft2\test.add.xml"/>
        <sumo-net-file value="C:\Users\gdste\OneDrive - University of Patras\Uni\Diploma Thesis\sterg_3d_twin\sumo\draft2\map.net.xml"/>
    </input>

    <output>
        <output-file value="C:\Users\gdste\OneDrive - University of Patras\Uni\Diploma Thesis\sterg_3d_twin\sumo\draft2\map.net.xml"/>
    </output>

    <processing>
        <geometry.min-radius.fix.railways value="false"/>
        <geometry.max-grade.fix value="false"/>
        <offset.disable-normalization value="true"/>
        <lefthand value="0"/>
    </processing>

    <junctions>
        <no-turnarounds value="true"/>
        <junctions.corner-detail value="5"/>
        <junctions.limit-turn-speed value="5.50"/>
        <rectangular-lane-cut value="0"/>
    </junctions>

    <pedestrian>
        <walkingareas value="0"/>
    </pedestrian>

</neteditConfiguration>
-->

<net version="1.20" junctionCornerDetail="5" limitTurnSpeed="5.50" xmlns:xsi="http://www.w3.org/2001/XMLSchema-instance" xsi:noNamespaceSchemaLocation="http://sumo.dlr.de/xsd/net_file.xsd">

    <location netOffset="-568602.74,-4237627.70" convBoundary="0.00,-0.34,482.45,806.96" origBoundary="21.784472,38.284061,21.791752,38.291390" projParameter="+proj=utm +zone=34 +ellps=WGS84 +datum=WGS84 +units=m +no_defs"/>

    <type id="highway.service" priority="1" numLanes="1" speed="5.56" allow="pedestrian delivery bicycle" oneway="0"/>
    <type id="highway.tertiary" priority="10" numLanes="1" speed="22.22" disallow="tram rail_urban rail rail_electric rail_fast ship container cable_car subway aircraft wheelchair scooter drone" oneway="0"/>

    <edge id=":11414591196_0" function="internal">
        <lane id=":11414591196_0_0" index="0" disallow="tram rail_urban rail rail_electric rail_fast ship container cable_car subway aircraft wheelchair scooter drone" speed="22.22" length="0.10" shape="239.93,306.00 239.93,306.00"/>
    </edge>
    <edge id=":11414591196_1" function="internal">
        <lane id=":11414591196_1_0" index="0" disallow="tram rail_urban rail rail_electric rail_fast ship container cable_car subway aircraft wheelchair scooter drone" speed="22.22" length="0.10" shape="241.67,303.32 241.67,303.32"/>
    </edge>
    <edge id=":1794344383_0" function="internal">
        <lane id=":1794344383_0_0" index="0" allow="pedestrian delivery bicycle" speed="5.56" length="3.84" shape="274.35,441.23 273.71,440.48 273.25,439.66 272.98,438.76 272.89,437.78"/>
    </edge>
    <edge id=":1794344383_1" function="internal">
        <lane id=":1794344383_1_0" index="0" allow="pedestrian delivery bicycle" speed="4.18" length="1.28" shape="276.09,437.79 276.12,438.11 276.21,438.41 276.36,438.69 276.58,438.94"/>
    </edge>
    <edge id=":1794378144_0" function="internal">
        <lane id=":1794378144_0_0" index="0" disallow="tram rail_urban rail rail_electric rail_fast ship container cable_car subway aircraft wheelchair scooter drone" speed="22.22" length="0.30" shape="211.71,392.19 211.53,392.43"/>
    </edge>
    <edge id=":1794378401_0" function="internal">
        <lane id=":1794378401_0_0" index="0" disallow="tram rail_urban rail rail_electric rail_fast ship container cable_car subway aircraft wheelchair scooter drone" speed="22.22" length="0.26" shape="221.11,378.94 220.96,379.16"/>
    </edge>
    <edge id=":1794378574_0" function="internal">
        <lane id=":1794378574_0_0" index="0" disallow="tram rail_urban rail rail_electric rail_fast ship container cable_car subway aircraft wheelchair scooter drone" speed="5.56" length="0.31" shape="272.90,406.34 272.90,406.03"/>
    </edge>
    <edge id=":1794378574_1" function="internal">
        <lane id=":1794378574_1_0" index="0" disallow="tram rail_urban rail rail_electric rail_fast ship container cable_car subway aircraft wheelchair scooter drone" speed="5.56" length="0.27" shape="276.10,406.06 276.10,406.33"/>
    </edge>
    <edge id=":294041531_0" function="internal">
        <lane id=":294041531_0_0" index="0" disallow="tram rail_urban rail rail_electric rail_fast ship container cable_car subway aircraft wheelchair scooter drone" speed="6.49" length="9.03" shape="350.10,339.21 349.72,336.76 348.66,335.03 346.89,334.00 344.43,333.70"/>
    </edge>
    <edge id=":294041531_1" function="internal">
        <lane id=":294041531_1_0" index="0" disallow="tram rail_urban rail rail_electric rail_fast ship container cable_car subway aircraft wheelchair scooter drone" speed="7.99" length="14.23" shape="350.10,339.21 350.61,335.34 352.25,332.58 354.99,330.92 358.86,330.37"/>
    </edge>
    <edge id=":294041531_2" function="internal">
        <lane id=":294041531_2_0" index="0" disallow="tram rail_urban rail rail_electric rail_fast ship container cable_car subway aircraft wheelchair scooter drone" speed="6.49" length="9.03" shape="358.86,333.57 356.41,333.92 354.66,334.97 353.63,336.73 353.30,339.18"/>
    </edge>
    <edge id=":294041531_3" function="internal">
        <lane id=":294041531_3_0" index="0" disallow="tram rail_urban rail rail_electric rail_fast ship container cable_car subway aircraft wheelchair scooter drone" speed="22.22" length="14.43" shape="358.86,333.57 344.43,333.70"/>
    </edge>
    <edge id=":294041531_4" function="internal">
        <lane id=":294041531_4_0" index="0" disallow="tram rail_urban rail rail_electric rail_fast ship container cable_car subway aircraft wheelchair scooter drone" speed="22.22" length="14.48" shape="344.38,330.50 358.86,330.37"/>
    </edge>
    <edge id=":294041531_5" function="internal">
        <lane id=":294041531_5_0" index="0" disallow="tram rail_urban rail rail_electric rail_fast ship container cable_car subway aircraft wheelchair scooter drone" speed="7.99" length="4.14" shape="344.38,330.50 348.25,330.98 348.45,331.10"/>
    </edge>
    <edge id=":294041531_6" function="internal">
        <lane id=":294041531_6_0" index="0" disallow="tram rail_urban rail rail_electric rail_fast ship container cable_car subway aircraft wheelchair scooter drone" speed="7.99" length="10.09" shape="348.45,331.10 351.03,332.59 352.71,335.32 353.30,339.18"/>
    </edge>
    <edge id=":294041557_0" function="internal">
        <lane id=":294041557_0_0" index="0" disallow="tram rail_urban rail rail_electric rail_fast ship container cable_car subway aircraft wheelchair scooter drone" speed="3.65" length="4.67" shape="482.42,328.57 483.63,329.34 484.05,330.14 483.67,330.94 482.48,331.77"/>
    </edge>
    <edge id=":294041558_0" function="internal">
        <lane id=":294041558_0_0" index="0" disallow="tram rail_urban rail rail_electric rail_fast ship container cable_car subway aircraft wheelchair scooter drone" speed="22.22" length="11.39" shape="255.12,316.03 245.64,309.72"/>
    </edge>
    <edge id=":294041558_1" function="internal">
        <lane id=":294041558_1_0" index="0" disallow="tram rail_urban rail rail_electric rail_fast ship container cable_car subway aircraft wheelchair scooter drone" speed="7.31" length="2.53" shape="255.12,316.03 253.39,314.19"/>
    </edge>
    <edge id=":294041558_7" function="internal">
        <lane id=":294041558_7_0" index="0" disallow="tram rail_urban rail rail_electric rail_fast ship container cable_car subway aircraft wheelchair scooter drone" speed="7.31" length="9.22" shape="253.39,314.19 252.87,311.84 253.57,308.98 255.47,305.61"/>
    </edge>
    <edge id=":294041558_2" function="internal">
        <lane id=":294041558_2_0" index="0" disallow="tram rail_urban rail rail_electric rail_fast ship container cable_car subway aircraft wheelchair scooter drone" speed="6.66" length="9.30" shape="247.39,307.04 249.72,308.15 251.85,308.28 253.77,307.43 255.47,305.61"/>
    </edge>
    <edge id=":294041558_3" function="internal">
        <lane id=":294041558_3_0" index="0" disallow="tram rail_urban rail rail_electric rail_fast ship container cable_car subway aircraft wheelchair scooter drone" speed="22.22" length="11.45" shape="247.39,307.04 256.92,313.38"/>
    </edge>
    <edge id=":294041558_4" function="internal">
        <lane id=":294041558_4_0" index="0" disallow="tram rail_urban rail rail_electric rail_fast ship container cable_car subway aircraft wheelchair scooter drone" speed="6.39" length="9.04" shape="247.04,317.42 248.21,315.22 248.37,313.20 247.52,311.37 245.64,309.72"/>
    </edge>
    <edge id=":294041558_5" function="internal">
        <lane id=":294041558_5_0" index="0" disallow="tram rail_urban rail rail_electric rail_fast ship container cable_car subway aircraft wheelchair scooter drone" speed="22.22" length="14.51" shape="247.04,317.42 255.47,305.61"/>
    </edge>
    <edge id=":294041558_6" function="internal">
        <lane id=":294041558_6_0" index="0" disallow="tram rail_urban rail rail_electric rail_fast ship container cable_car subway aircraft wheelchair scooter drone" speed="7.48" length="11.91" shape="247.04,317.42 249.63,314.48 252.14,312.82 254.57,312.46 256.92,313.38"/>
    </edge>
    <edge id=":360211771_0" function="internal">
        <lane id=":360211771_0_0" index="0" disallow="tram rail_urban rail rail_electric rail_fast ship container cable_car subway aircraft wheelchair scooter drone" speed="6.93" length="9.65" shape="266.08,322.75 263.55,321.77 261.29,321.73 259.32,322.64 257.62,324.48"/>
    </edge>
    <edge id=":360211771_1" function="internal">
        <lane id=":360211771_1_0" index="0" disallow="tram rail_urban rail rail_electric rail_fast ship container cable_car subway aircraft wheelchair scooter drone" speed="22.22" length="11.67" shape="266.08,322.75 263.25,321.19 261.00,319.88 258.80,318.49 256.11,316.70"/>
    </edge>
    <edge id=":360211771_2" function="internal">
        <lane id=":360211771_2_0" index="0" disallow="tram rail_urban rail rail_electric rail_fast ship container cable_car subway aircraft wheelchair scooter drone" speed="6.30" length="9.04" shape="265.80,312.42 264.69,314.68 264.62,316.68 265.60,318.44 267.61,319.94"/>
    </edge>
    <edge id=":360211771_3" function="internal">
        <lane id=":360211771_3_0" index="0" disallow="tram rail_urban rail rail_electric rail_fast ship container cable_car subway aircraft wheelchair scooter drone" speed="22.22" length="14.57" shape="265.80,312.42 257.62,324.48"/>
    </edge>
    <edge id=":360211771_4" function="internal">
        <lane id=":360211771_4_0" index="0" disallow="tram rail_urban rail rail_electric rail_fast ship container cable_car subway aircraft wheelchair scooter drone" speed="7.38" length="11.88" shape="265.80,312.42 263.29,315.47 260.84,317.19 258.45,317.60 256.11,316.70"/>
    </edge>
    <edge id=":360211771_5" function="internal">
        <lane id=":360211771_5_0" index="0" disallow="tram rail_urban rail rail_electric rail_fast ship container cable_car subway aircraft wheelchair scooter drone" speed="22.22" length="11.36" shape="257.91,314.05 260.55,315.82 262.66,317.15 264.82,318.41 267.61,319.94"/>
    </edge>
    <edge id=":360211771_6" function="internal">
        <lane id=":360211771_6_0" index="0" disallow="tram rail_urban rail rail_electric rail_fast ship container cable_car subway aircraft wheelchair scooter drone" speed="7.34" length="2.50" shape="257.91,314.05 259.62,315.88"/>
    </edge>
    <edge id=":360211771_7" function="internal">
        <lane id=":360211771_7_0" index="0" disallow="tram rail_urban rail rail_electric rail_fast ship container cable_car subway aircraft wheelchair scooter drone" speed="7.34" length="9.21" shape="259.62,315.88 260.14,318.22 259.48,321.09 257.62,324.48"/>
    </edge>
    <edge id=":360214980_0" function="internal">
        <lane id=":360214980_0_0" index="0" disallow="tram rail_urban rail rail_electric rail_fast ship container cable_car subway aircraft wheelchair scooter drone" speed="5.56" length="14.52" shape="353.93,386.02 353.95,400.54"/>
    </edge>
    <edge id=":360214980_1" function="internal">
        <lane id=":360214980_1_0" index="0" disallow="tram rail_urban rail rail_electric rail_fast ship container cable_car subway aircraft wheelchair scooter drone" speed="5.56" length="14.24" shape="353.93,386.02 353.43,389.89 351.81,392.66 349.06,394.33 345.19,394.88"/>
    </edge>
    <edge id=":360214980_2" function="internal">
        <lane id=":360214980_2_0" index="0" disallow="tram rail_urban rail rail_electric rail_fast ship container cable_car subway aircraft wheelchair scooter drone" speed="3.65" length="4.67" shape="353.93,386.02 353.15,387.23 352.35,387.64 351.55,387.25 350.73,386.06"/>
    </edge>
    <edge id=":360214980_3" function="internal">
        <lane id=":360214980_3_0" index="0" disallow="tram rail_urban rail rail_electric rail_fast ship container cable_car subway aircraft wheelchair scooter drone" speed="5.56" length="9.03" shape="345.19,391.68 347.64,391.33 349.38,390.28 350.41,388.52 350.73,386.06"/>
    </edge>
    <edge id=":360214980_4" function="internal">
        <lane id=":360214980_4_0" index="0" disallow="tram rail_urban rail rail_electric rail_fast ship container cable_car subway aircraft wheelchair scooter drone" speed="5.56" length="14.24" shape="345.19,391.68 349.06,392.24 351.81,393.89 353.44,396.66 353.95,400.54"/>
    </edge>
    <edge id=":360214980_5" function="internal">
        <lane id=":360214980_5_0" index="0" disallow="tram rail_urban rail rail_electric rail_fast ship container cable_car subway aircraft wheelchair scooter drone" speed="5.56" length="9.03" shape="350.75,400.50 350.42,398.04 349.39,396.29 347.64,395.23 345.19,394.88"/>
    </edge>
    <edge id=":360214980_6" function="internal">
        <lane id=":360214980_6_0" index="0" disallow="tram rail_urban rail rail_electric rail_fast ship container cable_car subway aircraft wheelchair scooter drone" speed="5.56" length="14.44" shape="350.75,400.50 350.73,386.06"/>
    </edge>
    <edge id=":360214981_0" function="internal">
        <lane id=":360214981_0_0" index="0" disallow="tram rail_urban rail rail_electric rail_fast ship container cable_car subway aircraft wheelchair scooter drone" speed="3.90" length="2.56" shape="277.80,394.92 277.11,395.02 276.61,395.31 276.31,395.81 276.21,396.50"/>
    </edge>
    <edge id=":360214981_1" function="internal">
        <lane id=":360214981_1_0" index="0" disallow="tram rail_urban rail rail_electric rail_fast ship container cable_car subway aircraft wheelchair scooter drone" speed="5.56" length="7.68" shape="273.01,396.47 273.32,394.39 274.23,392.91 275.72,392.02 277.80,391.72"/>
    </edge>
    <edge id=":360214982_0" function="internal">
        <lane id=":360214982_0_0" index="0" allow="pedestrian delivery bicycle" speed="5.56" length="7.04" shape="281.63,415.86 279.22,416.03 277.50,416.60 276.47,417.57 276.12,418.93"/>
    </edge>
    <edge id=":360214982_1" function="internal">
        <lane id=":360214982_1_0" index="0" disallow="tram rail_urban rail rail_electric rail_fast ship container cable_car subway aircraft wheelchair scooter drone" speed="5.56" length="14.07" shape="281.63,415.86 277.83,415.28 275.10,413.63 273.46,410.90 272.90,407.09"/>
    </edge>
    <edge id=":360214982_2" function="internal">
        <lane id=":360214982_2_0" index="0" disallow="tram rail_urban rail rail_electric rail_fast ship container cable_car subway aircraft wheelchair scooter drone" speed="5.56" length="8.96" shape="276.10,407.08 276.46,409.50 277.50,411.24 279.24,412.29 281.66,412.66"/>
    </edge>
    <edge id=":360214982_3" function="internal">
        <lane id=":360214982_3_0" index="0" allow="pedestrian delivery bicycle" speed="5.56" length="11.85" shape="276.10,407.08 276.12,418.93"/>
    </edge>
    <edge id=":360214982_4" function="internal">
        <lane id=":360214982_4_0" index="0" allow="pedestrian delivery bicycle" speed="5.56" length="11.83" shape="272.92,418.92 272.90,407.09"/>
    </edge>
    <edge id=":360214982_5" function="internal">
        <lane id=":360214982_5_0" index="0" allow="pedestrian delivery bicycle" speed="5.56" length="12.18" shape="272.92,418.92 273.47,416.16 275.11,414.19 277.84,413.02 281.66,412.66"/>
    </edge>
    <edge id=":360214983_0" function="internal">
        <lane id=":360214983_0_0" index="0" disallow="tram rail_urban rail rail_electric rail_fast ship container cable_car subway aircraft wheelchair scooter drone" speed="5.56" length="7.72" shape="353.82,411.68 353.49,413.77 352.58,415.26 351.07,416.14 348.98,416.42"/>
    </edge>
    <edge id=":360214983_1" function="internal">
        <lane id=":360214983_1_0" index="0" disallow="tram rail_urban rail rail_electric rail_fast ship container cable_car subway aircraft wheelchair scooter drone" speed="3.90" length="2.57" shape="349.00,413.22 349.70,413.13 350.20,412.83 350.51,412.34 350.62,411.64"/>
    </edge>
    <edge id=":360216397_0" function="internal">
        <lane id=":360216397_0_0" index="0" disallow="tram rail_urban rail rail_electric rail_fast ship container cable_car subway aircraft wheelchair scooter drone" speed="3.65" length="4.67" shape="129.97,230.07 129.44,228.73 129.56,227.84 130.34,227.41 131.79,227.43"/>
    </edge>
    <edge id=":4124696249_0" function="internal">
        <lane id=":4124696249_0_0" index="0" disallow="tram rail_urban rail rail_electric rail_fast ship container cable_car subway aircraft wheelchair scooter drone" speed="3.69" length="4.66" shape="439.08,-0.34 440.02,-1.43 440.86,-1.72 441.60,-1.23 442.24,0.06"/>
    </edge>
    <edge id=":4788982443_0" function="internal">
        <lane id=":4788982443_0_0" index="0" disallow="tram rail_urban rail rail_electric rail_fast ship container cable_car subway aircraft wheelchair scooter drone" speed="22.22" length="0.24" shape="342.15,333.74 341.92,333.74"/>
    </edge>
    <edge id=":4788982443_1" function="internal">
        <lane id=":4788982443_1_0" index="0" disallow="tram rail_urban rail rail_electric rail_fast ship container cable_car subway aircraft wheelchair scooter drone" speed="22.22" length="0.31" shape="341.79,330.55 342.10,330.54"/>
    </edge>
    <edge id=":7643863432_0" function="internal">
        <lane id=":7643863432_0_0" index="0" disallow="tram rail_urban rail rail_electric rail_fast ship container cable_car subway aircraft wheelchair scooter drone" speed="22.22" length="0.29" shape="238.64,328.84 238.81,328.60"/>
    </edge>
    <edge id=":7643863440_0" function="internal">
        <lane id=":7643863440_0_0" index="0" disallow="tram rail_urban rail rail_electric rail_fast ship container cable_car subway aircraft wheelchair scooter drone" speed="22.22" length="0.10" shape="250.22,335.52 250.22,335.52"/>
    </edge>
    <edge id=":7643863451_0" function="internal">
        <lane id=":7643863451_0_0" index="0" disallow="tram rail_urban rail rail_electric rail_fast ship container cable_car subway aircraft wheelchair scooter drone" speed="22.22" length="0.30" shape="12.61,657.87 12.77,657.61"/>
    </edge>
    <edge id=":8241562945_0" function="internal">
        <lane id=":8241562945_0_0" index="0" disallow="tram rail_urban rail rail_electric rail_fast ship container cable_car subway aircraft wheelchair scooter drone" speed="5.56" length="0.31" shape="350.10,339.62 350.10,339.32"/>
    </edge>
    <edge id=":8241562945_1" function="internal">
        <lane id=":8241562945_1_0" index="0" disallow="tram rail_urban rail rail_electric rail_fast ship container cable_car subway aircraft wheelchair scooter drone" speed="5.56" length="0.29" shape="353.30,339.29 353.30,339.58"/>
    </edge>
    <edge id=":8241562950_0" function="internal">
        <lane id=":8241562950_0_0" index="0" disallow="tram rail_urban rail rail_electric rail_fast ship container cable_car subway aircraft wheelchair scooter drone" speed="22.22" length="0.10" shape="259.74,299.46 259.74,299.46"/>
    </edge>
    <edge id=":8241562951_0" function="internal">
        <lane id=":8241562951_0_0" index="0" disallow="tram rail_urban rail rail_electric rail_fast ship container cable_car subway aircraft wheelchair scooter drone" speed="22.22" length="0.10" shape="269.74,306.68 269.74,306.68"/>
    </edge>
    <edge id=":8241562960_0" function="internal">
        <lane id=":8241562960_0_0" index="0" disallow="tram rail_urban rail rail_electric rail_fast ship container cable_car subway aircraft wheelchair scooter drone" speed="22.22" length="0.30" shape="269.16,324.43 268.89,324.28"/>
    </edge>
    <edge id=":8241562960_1" function="internal">
        <lane id=":8241562960_1_0" index="0" disallow="tram rail_urban rail rail_electric rail_fast ship container cable_car subway aircraft wheelchair scooter drone" speed="22.22" length="0.21" shape="270.42,321.47 270.61,321.57"/>
    </edge>

    <edge id="-1008226672#0" from="8241562945" to="294041531" priority="1" type="highway.tertiary">
        <lane id="-1008226672#0_0" index="0" disallow="tram rail_urban rail rail_electric rail_fast ship container cable_car subway aircraft wheelchair scooter drone" speed="5.56" length="0.10" shape="350.10,339.32 350.10,339.21"/>
    </edge>
    <edge id="-1008226672#1" from="360214980" to="8241562945" priority="1" type="highway.tertiary">
        <lane id="-1008226672#1_0" index="0" disallow="tram rail_urban rail rail_electric rail_fast ship container cable_car subway aircraft wheelchair scooter drone" speed="5.56" length="46.44" shape="350.73,386.06 350.10,339.62"/>
    </edge>
    <edge id="-1008226672#2" from="360214983" to="360214980" priority="1" type="highway.tertiary">
        <lane id="-1008226672#2_0" index="0" disallow="tram rail_urban rail rail_electric rail_fast ship container cable_car subway aircraft wheelchair scooter drone" speed="5.56" length="11.14" shape="350.62,411.64 350.75,400.50"/>
    </edge>
    <edge id="-1289093286#0" from="294041558" to="360211771" priority="10" type="highway.tertiary">
        <lane id="-1289093286#0_0" index="0" disallow="tram rail_urban rail rail_electric rail_fast ship container cable_car subway aircraft wheelchair scooter drone" speed="22.22" length="1.19" shape="256.92,313.38 257.91,314.05"/>
    </edge>
    <edge id="-1289093286#1" from="11414591196" to="294041558" priority="10" type="highway.tertiary">
        <lane id="-1289093286#1_0" index="0" disallow="tram rail_urban rail rail_electric rail_fast ship container cable_car subway aircraft wheelchair scooter drone" speed="22.22" length="6.82" shape="241.67,303.32 247.39,307.04"/>
    </edge>
    <edge id="-1289093286#2" from="360216397" to="11414591196" priority="10" type="highway.tertiary" shape="130.88,228.75 148.72,241.00 180.91,264.03 196.84,275.29 204.37,280.57 211.28,285.42 240.80,304.66">
        <lane id="-1289093286#2_0" index="0" disallow="tram rail_urban rail rail_electric rail_fast ship container cable_car subway aircraft wheelchair scooter drone" speed="22.22" length="133.57" shape="131.79,227.43 149.64,239.69 181.84,262.73 197.76,273.98 205.29,279.26 212.18,284.09 241.67,303.32"/>
    </edge>
    <edge id="-159932585#0" from="294041531" to="294041557" priority="10" type="highway.tertiary" shape="351.63,331.97 401.51,331.94 403.37,331.90 482.45,330.17">
        <lane id="-159932585#0_0" index="0" disallow="tram rail_urban rail rail_electric rail_fast ship container cable_car subway aircraft wheelchair scooter drone" speed="22.22" length="123.58" shape="358.86,330.37 401.51,330.34 403.34,330.30 482.42,328.57"/>
    </edge>
    <edge id="-159932585#1" from="4788982443" to="294041531" priority="10" type="highway.tertiary">
        <lane id="-159932585#1_0" index="0" disallow="tram rail_urban rail rail_electric rail_fast ship container cable_car subway aircraft wheelchair scooter drone" speed="22.22" length="2.28" shape="342.10,330.54 344.38,330.50"/>
    </edge>
    <edge id="-159932585#2" from="8241562960" to="4788982443" priority="10" type="highway.tertiary" shape="269.77,322.94 273.65,324.91 280.31,327.84 283.90,329.30 286.70,330.33 290.35,331.22 293.84,331.93 298.74,332.66 308.18,333.52 341.99,332.14">
        <lane id="-159932585#2_0" index="0" disallow="tram rail_urban rail rail_electric rail_fast ship container cable_car subway aircraft wheelchair scooter drone" speed="22.22" length="72.99" shape="270.61,321.57 274.33,323.46 280.93,326.37 284.48,327.81 287.17,328.80 290.70,329.66 294.12,330.35 298.93,331.07 308.22,331.92 341.79,330.55"/>
    </edge>
    <edge id="-159932585#3" from="360211771" to="8241562960" priority="10" type="highway.tertiary">
        <lane id="-159932585#3_0" index="0" disallow="tram rail_urban rail rail_electric rail_fast ship container cable_car subway aircraft wheelchair scooter drone" speed="22.22" length="3.20" shape="267.61,319.94 270.42,321.47"/>
    </edge>
    <edge id="-168123973#0" from="1794344383" to="360214982" priority="1" type="highway.service">
        <lane id="-168123973#0_0" index="0" allow="pedestrian delivery bicycle" speed="5.56" length="18.86" shape="272.89,437.78 272.92,418.92"/>
    </edge>
    <edge id="-168123973#1" from="1794344393" to="1794344383" priority="1" type="highway.service" shape="307.90,446.45 281.85,446.30 274.49,439.14">
        <lane id="-168123973#1_0" index="0" allow="pedestrian delivery bicycle" speed="5.56" length="36.25" shape="307.89,448.05 281.20,447.90 274.35,441.23"/>
    </edge>
    <edge id="-32085402#0" from="360214981" to="360214980" priority="1" type="highway.tertiary">
        <lane id="-32085402#0_0" index="0" disallow="tram rail_urban rail rail_electric rail_fast ship container cable_car subway aircraft wheelchair scooter drone" speed="5.56" length="67.38" shape="277.80,391.72 345.19,391.68"/>
    </edge>
    <edge id="-32085402#1" from="1794378574" to="360214981" priority="1" type="highway.tertiary">
        <lane id="-32085402#1_0" index="0" disallow="tram rail_urban rail rail_electric rail_fast ship container cable_car subway aircraft wheelchair scooter drone" speed="5.56" length="9.56" shape="272.90,406.03 273.01,396.47"/>
    </edge>
    <edge id="-32085402#2" from="360214982" to="1794378574" priority="1" type="highway.tertiary">
        <lane id="-32085402#2_0" index="0" disallow="tram rail_urban rail rail_electric rail_fast ship container cable_car subway aircraft wheelchair scooter drone" speed="5.56" length="0.75" shape="272.90,407.09 272.90,406.34"/>
    </edge>
    <edge id="-32085402#3" from="360214983" to="360214982" priority="1" type="highway.tertiary">
        <lane id="-32085402#3_0" index="0" disallow="tram rail_urban rail rail_electric rail_fast ship container cable_car subway aircraft wheelchair scooter drone" speed="5.56" length="67.35" shape="348.98,416.42 281.63,415.86"/>
    </edge>
    <edge id="1008226672#0" from="294041531" to="8241562945" priority="1" type="highway.tertiary">
        <lane id="1008226672#0_0" index="0" disallow="tram rail_urban rail rail_electric rail_fast ship container cable_car subway aircraft wheelchair scooter drone" speed="5.56" length="0.10" shape="353.30,339.18 353.30,339.29"/>
    </edge>
    <edge id="1008226672#1" from="8241562945" to="360214980" priority="1" type="highway.tertiary">
        <lane id="1008226672#1_0" index="0" disallow="tram rail_urban rail rail_electric rail_fast ship container cable_car subway aircraft wheelchair scooter drone" speed="5.56" length="46.44" shape="353.30,339.58 353.93,386.02"/>
    </edge>
    <edge id="1008226672#2" from="360214980" to="360214983" priority="1" type="highway.tertiary">
        <lane id="1008226672#2_0" index="0" disallow="tram rail_urban rail rail_electric rail_fast ship container cable_car subway aircraft wheelchair scooter drone" speed="5.56" length="11.14" shape="353.95,400.54 353.82,411.68"/>
    </edge>
    <edge id="1289093285#0" from="4124696249" to="8241562951" priority="10" type="highway.tertiary" spreadType="center" shape="442.24,0.06 439.11,42.57 437.84,53.31 436.88,56.18 434.28,63.96 378.93,145.81 373.18,154.30 369.05,160.68 355.51,181.57 313.82,242.39 269.74,306.68">
        <lane id="1289093285#0_0" index="0" disallow="tram rail_urban rail rail_electric rail_fast ship container cable_car subway aircraft wheelchair scooter drone" speed="22.22" length="357.91" shape="442.24,0.06 439.11,42.57 437.84,53.31 436.88,56.18 434.28,63.96 378.93,145.81 373.18,154.30 369.05,160.68 355.51,181.57 313.82,242.39 269.74,306.68"/>
    </edge>
    <edge id="1289093285#1" from="8241562951" to="360211771" priority="10" type="highway.tertiary" spreadType="center">
        <lane id="1289093285#1_0" index="0" disallow="tram rail_urban rail rail_electric rail_fast ship container cable_car subway aircraft wheelchair scooter drone" speed="22.22" length="6.96" shape="269.74,306.68 265.80,312.42"/>
    </edge>
    <edge id="1289093286#0" from="360211771" to="294041558" priority="10" type="highway.tertiary">
        <lane id="1289093286#0_0" index="0" disallow="tram rail_urban rail rail_electric rail_fast ship container cable_car subway aircraft wheelchair scooter drone" speed="22.22" length="1.19" shape="256.11,316.70 255.12,316.03"/>
    </edge>
    <edge id="1289093286#1" from="294041558" to="11414591196" priority="10" type="highway.tertiary">
        <lane id="1289093286#1_0" index="0" disallow="tram rail_urban rail rail_electric rail_fast ship container cable_car subway aircraft wheelchair scooter drone" speed="22.22" length="6.82" shape="245.64,309.72 239.93,306.00"/>
    </edge>
    <edge id="1289093286#2" from="11414591196" to="360216397" priority="10" type="highway.tertiary" shape="240.80,304.66 211.28,285.42 204.37,280.57 196.84,275.29 180.91,264.03 148.72,241.00 130.88,228.75">